!ADAMS/View model name: Input files for FAST v7.02.
!This ADAMS dataset file was generated by FAST (v7.02.00d-bjj, 20-Feb-2013) on 25-Apr-2016 at 13:03:01.
!Turbine input data from file "D:\jwvanwingerden\Desktop\FASTtool_Baseline\subfunctions\linearization.fst".
!                             adams_view_name='CalcOuts_V'
VARIABLE/1, FUNCTION = USER(1)
!=================================== PARTS =====================================
!----------------------------------- Ground ------------------------------------
!                             adams_view_name='Ground_P'
PART/1
, GROUND
!                             adams_view_name='AeroDynGround_M'
MARKER/1
, PART = 1
, QP =  0.000000E+00,  0.000000E+00,  0.000000E+00
, REULER = 0D, 0D, 0D
!                             adams_view_name='InertialFrameCS_M'
MARKER/10
, PART = 1
!                             adams_view_name='InitPtfmOrientation_M'
MARKER/11
, PART = 1
, QP =  0.000000E+00,  0.000000E+00,  0.000000E+00
, ZP =  0.000000E+00,  0.000000E+00,  1.000000E+00
, XP =  1.000000E+00,  0.000000E+00,  0.000000E+00
!                             adams_view_name='TailFinFloatingAero_M'
MARKER/500
, PART = 1
, FLOATING
!                             adams_view_name='PlatformLoadingFloating_M'
MARKER/800
, PART = 1
, FLOATING
!------------------ Ground: Floating Aero and Hydro for Tower ------------------
!                             adams_view_name='TowerSec01FloatingAeroHydro_M'
MARKER/801
, PART = 1
, FLOATING
!                             adams_view_name='TowerSec02FloatingAeroHydro_M'
MARKER/802
, PART = 1
, FLOATING
!                             adams_view_name='TowerSec03FloatingAeroHydro_M'
MARKER/803
, PART = 1
, FLOATING
!                             adams_view_name='TowerSec04FloatingAeroHydro_M'
MARKER/804
, PART = 1
, FLOATING
!                             adams_view_name='TowerSec05FloatingAeroHydro_M'
MARKER/805
, PART = 1
, FLOATING
!                             adams_view_name='TowerSec06FloatingAeroHydro_M'
MARKER/806
, PART = 1
, FLOATING
!                             adams_view_name='TowerSec07FloatingAeroHydro_M'
MARKER/807
, PART = 1
, FLOATING
!                             adams_view_name='TowerSec08FloatingAeroHydro_M'
MARKER/808
, PART = 1
, FLOATING
!                             adams_view_name='TowerSec09FloatingAeroHydro_M'
MARKER/809
, PART = 1
, FLOATING
!                             adams_view_name='TowerSec10FloatingAeroHydro_M'
MARKER/810
, PART = 1
, FLOATING
!                             adams_view_name='TowerSec11FloatingAeroHydro_M'
MARKER/811
, PART = 1
, FLOATING
!--------------------- Ground: Floating Aero for Blade 1 -----------------------
!                             adams_view_name='Bld1Sec01FloatingAero_M'
MARKER/101
, PART = 1
, FLOATING
!                             adams_view_name='Bld1Sec02FloatingAero_M'
MARKER/102
, PART = 1
, FLOATING
!                             adams_view_name='Bld1Sec03FloatingAero_M'
MARKER/103
, PART = 1
, FLOATING
!                             adams_view_name='Bld1Sec04FloatingAero_M'
MARKER/104
, PART = 1
, FLOATING
!                             adams_view_name='Bld1Sec05FloatingAero_M'
MARKER/105
, PART = 1
, FLOATING
!                             adams_view_name='Bld1Sec06FloatingAero_M'
MARKER/106
, PART = 1
, FLOATING
!                             adams_view_name='Bld1Sec07FloatingAero_M'
MARKER/107
, PART = 1
, FLOATING
!                             adams_view_name='Bld1Sec08FloatingAero_M'
MARKER/108
, PART = 1
, FLOATING
!                             adams_view_name='Bld1Sec09FloatingAero_M'
MARKER/109
, PART = 1
, FLOATING
!                             adams_view_name='Bld1Sec10FloatingAero_M'
MARKER/110
, PART = 1
, FLOATING
!                             adams_view_name='Bld1Sec11FloatingAero_M'
MARKER/111
, PART = 1
, FLOATING
!                             adams_view_name='Bld1Sec12FloatingAero_M'
MARKER/112
, PART = 1
, FLOATING
!                             adams_view_name='Bld1Sec13FloatingAero_M'
MARKER/113
, PART = 1
, FLOATING
!                             adams_view_name='Bld1Sec14FloatingAero_M'
MARKER/114
, PART = 1
, FLOATING
!                             adams_view_name='Bld1Sec15FloatingAero_M'
MARKER/115
, PART = 1
, FLOATING
!                             adams_view_name='Bld1Sec16FloatingAero_M'
MARKER/116
, PART = 1
, FLOATING
!                             adams_view_name='Bld1Sec17FloatingAero_M'
MARKER/117
, PART = 1
, FLOATING
!                             adams_view_name='Bld1Sec18FloatingAero_M'
MARKER/118
, PART = 1
, FLOATING
!                             adams_view_name='Bld1Sec19FloatingAero_M'
MARKER/119
, PART = 1
, FLOATING
!                             adams_view_name='Bld1Sec20FloatingAero_M'
MARKER/120
, PART = 1
, FLOATING
!                             adams_view_name='Bld1Sec21FloatingAero_M'
MARKER/121
, PART = 1
, FLOATING
!                             adams_view_name='Bld1Sec22FloatingAero_M'
MARKER/122
, PART = 1
, FLOATING
!                             adams_view_name='Bld1Sec23FloatingAero_M'
MARKER/123
, PART = 1
, FLOATING
!                             adams_view_name='Bld1Sec24FloatingAero_M'
MARKER/124
, PART = 1
, FLOATING
!                             adams_view_name='Bld1Sec25FloatingAero_M'
MARKER/125
, PART = 1
, FLOATING
!                             adams_view_name='Bld1Sec26FloatingAero_M'
MARKER/126
, PART = 1
, FLOATING
!                             adams_view_name='Bld1Sec27FloatingAero_M'
MARKER/127
, PART = 1
, FLOATING
!                             adams_view_name='Bld1Sec28FloatingAero_M'
MARKER/128
, PART = 1
, FLOATING
!                             adams_view_name='Bld1Sec29FloatingAero_M'
MARKER/129
, PART = 1
, FLOATING
!                             adams_view_name='Bld1Sec30FloatingAero_M'
MARKER/130
, PART = 1
, FLOATING
!                             adams_view_name='Bld1Sec31FloatingAero_M'
MARKER/131
, PART = 1
, FLOATING
!                             adams_view_name='Bld1Sec32FloatingAero_M'
MARKER/132
, PART = 1
, FLOATING
!                             adams_view_name='Bld1Sec33FloatingAero_M'
MARKER/133
, PART = 1
, FLOATING
!                             adams_view_name='Bld1Sec34FloatingAero_M'
MARKER/134
, PART = 1
, FLOATING
!                             adams_view_name='Bld1Sec35FloatingAero_M'
MARKER/135
, PART = 1
, FLOATING
!                             adams_view_name='Bld1Sec36FloatingAero_M'
MARKER/136
, PART = 1
, FLOATING
!                             adams_view_name='Bld1Sec37FloatingAero_M'
MARKER/137
, PART = 1
, FLOATING
!                             adams_view_name='Bld1Sec38FloatingAero_M'
MARKER/138
, PART = 1
, FLOATING
!                             adams_view_name='Bld1Sec39FloatingAero_M'
MARKER/139
, PART = 1
, FLOATING
!                             adams_view_name='Bld1Sec40FloatingAero_M'
MARKER/140
, PART = 1
, FLOATING
!                             adams_view_name='Bld1Sec41FloatingAero_M'
MARKER/141
, PART = 1
, FLOATING
!                             adams_view_name='Bld1Sec42FloatingAero_M'
MARKER/142
, PART = 1
, FLOATING
!                             adams_view_name='Bld1Sec43FloatingAero_M'
MARKER/143
, PART = 1
, FLOATING
!                             adams_view_name='Bld1Sec44FloatingAero_M'
MARKER/144
, PART = 1
, FLOATING
!                             adams_view_name='Bld1Sec45FloatingAero_M'
MARKER/145
, PART = 1
, FLOATING
!                             adams_view_name='Bld1Sec46FloatingAero_M'
MARKER/146
, PART = 1
, FLOATING
!                             adams_view_name='Bld1Sec47FloatingAero_M'
MARKER/147
, PART = 1
, FLOATING
!                             adams_view_name='Bld1Sec48FloatingAero_M'
MARKER/148
, PART = 1
, FLOATING
!                             adams_view_name='TipBrake1FloatingAero_M'
MARKER/501
, PART = 1
, FLOATING
!--------------------- Ground: Floating Aero for Blade 2 -----------------------
!                             adams_view_name='Bld2Sec01FloatingAero_M'
MARKER/201
, PART = 1
, FLOATING
!                             adams_view_name='Bld2Sec02FloatingAero_M'
MARKER/202
, PART = 1
, FLOATING
!                             adams_view_name='Bld2Sec03FloatingAero_M'
MARKER/203
, PART = 1
, FLOATING
!                             adams_view_name='Bld2Sec04FloatingAero_M'
MARKER/204
, PART = 1
, FLOATING
!                             adams_view_name='Bld2Sec05FloatingAero_M'
MARKER/205
, PART = 1
, FLOATING
!                             adams_view_name='Bld2Sec06FloatingAero_M'
MARKER/206
, PART = 1
, FLOATING
!                             adams_view_name='Bld2Sec07FloatingAero_M'
MARKER/207
, PART = 1
, FLOATING
!                             adams_view_name='Bld2Sec08FloatingAero_M'
MARKER/208
, PART = 1
, FLOATING
!                             adams_view_name='Bld2Sec09FloatingAero_M'
MARKER/209
, PART = 1
, FLOATING
!                             adams_view_name='Bld2Sec10FloatingAero_M'
MARKER/210
, PART = 1
, FLOATING
!                             adams_view_name='Bld2Sec11FloatingAero_M'
MARKER/211
, PART = 1
, FLOATING
!                             adams_view_name='Bld2Sec12FloatingAero_M'
MARKER/212
, PART = 1
, FLOATING
!                             adams_view_name='Bld2Sec13FloatingAero_M'
MARKER/213
, PART = 1
, FLOATING
!                             adams_view_name='Bld2Sec14FloatingAero_M'
MARKER/214
, PART = 1
, FLOATING
!                             adams_view_name='Bld2Sec15FloatingAero_M'
MARKER/215
, PART = 1
, FLOATING
!                             adams_view_name='Bld2Sec16FloatingAero_M'
MARKER/216
, PART = 1
, FLOATING
!                             adams_view_name='Bld2Sec17FloatingAero_M'
MARKER/217
, PART = 1
, FLOATING
!                             adams_view_name='Bld2Sec18FloatingAero_M'
MARKER/218
, PART = 1
, FLOATING
!                             adams_view_name='Bld2Sec19FloatingAero_M'
MARKER/219
, PART = 1
, FLOATING
!                             adams_view_name='Bld2Sec20FloatingAero_M'
MARKER/220
, PART = 1
, FLOATING
!                             adams_view_name='Bld2Sec21FloatingAero_M'
MARKER/221
, PART = 1
, FLOATING
!                             adams_view_name='Bld2Sec22FloatingAero_M'
MARKER/222
, PART = 1
, FLOATING
!                             adams_view_name='Bld2Sec23FloatingAero_M'
MARKER/223
, PART = 1
, FLOATING
!                             adams_view_name='Bld2Sec24FloatingAero_M'
MARKER/224
, PART = 1
, FLOATING
!                             adams_view_name='Bld2Sec25FloatingAero_M'
MARKER/225
, PART = 1
, FLOATING
!                             adams_view_name='Bld2Sec26FloatingAero_M'
MARKER/226
, PART = 1
, FLOATING
!                             adams_view_name='Bld2Sec27FloatingAero_M'
MARKER/227
, PART = 1
, FLOATING
!                             adams_view_name='Bld2Sec28FloatingAero_M'
MARKER/228
, PART = 1
, FLOATING
!                             adams_view_name='Bld2Sec29FloatingAero_M'
MARKER/229
, PART = 1
, FLOATING
!                             adams_view_name='Bld2Sec30FloatingAero_M'
MARKER/230
, PART = 1
, FLOATING
!                             adams_view_name='Bld2Sec31FloatingAero_M'
MARKER/231
, PART = 1
, FLOATING
!                             adams_view_name='Bld2Sec32FloatingAero_M'
MARKER/232
, PART = 1
, FLOATING
!                             adams_view_name='Bld2Sec33FloatingAero_M'
MARKER/233
, PART = 1
, FLOATING
!                             adams_view_name='Bld2Sec34FloatingAero_M'
MARKER/234
, PART = 1
, FLOATING
!                             adams_view_name='Bld2Sec35FloatingAero_M'
MARKER/235
, PART = 1
, FLOATING
!                             adams_view_name='Bld2Sec36FloatingAero_M'
MARKER/236
, PART = 1
, FLOATING
!                             adams_view_name='Bld2Sec37FloatingAero_M'
MARKER/237
, PART = 1
, FLOATING
!                             adams_view_name='Bld2Sec38FloatingAero_M'
MARKER/238
, PART = 1
, FLOATING
!                             adams_view_name='Bld2Sec39FloatingAero_M'
MARKER/239
, PART = 1
, FLOATING
!                             adams_view_name='Bld2Sec40FloatingAero_M'
MARKER/240
, PART = 1
, FLOATING
!                             adams_view_name='Bld2Sec41FloatingAero_M'
MARKER/241
, PART = 1
, FLOATING
!                             adams_view_name='Bld2Sec42FloatingAero_M'
MARKER/242
, PART = 1
, FLOATING
!                             adams_view_name='Bld2Sec43FloatingAero_M'
MARKER/243
, PART = 1
, FLOATING
!                             adams_view_name='Bld2Sec44FloatingAero_M'
MARKER/244
, PART = 1
, FLOATING
!                             adams_view_name='Bld2Sec45FloatingAero_M'
MARKER/245
, PART = 1
, FLOATING
!                             adams_view_name='Bld2Sec46FloatingAero_M'
MARKER/246
, PART = 1
, FLOATING
!                             adams_view_name='Bld2Sec47FloatingAero_M'
MARKER/247
, PART = 1
, FLOATING
!                             adams_view_name='Bld2Sec48FloatingAero_M'
MARKER/248
, PART = 1
, FLOATING
!                             adams_view_name='TipBrake2FloatingAero_M'
MARKER/502
, PART = 1
, FLOATING
!--------------------- Ground: Floating Aero for Blade 3 -----------------------
!                             adams_view_name='Bld3Sec01FloatingAero_M'
MARKER/301
, PART = 1
, FLOATING
!                             adams_view_name='Bld3Sec02FloatingAero_M'
MARKER/302
, PART = 1
, FLOATING
!                             adams_view_name='Bld3Sec03FloatingAero_M'
MARKER/303
, PART = 1
, FLOATING
!                             adams_view_name='Bld3Sec04FloatingAero_M'
MARKER/304
, PART = 1
, FLOATING
!                             adams_view_name='Bld3Sec05FloatingAero_M'
MARKER/305
, PART = 1
, FLOATING
!                             adams_view_name='Bld3Sec06FloatingAero_M'
MARKER/306
, PART = 1
, FLOATING
!                             adams_view_name='Bld3Sec07FloatingAero_M'
MARKER/307
, PART = 1
, FLOATING
!                             adams_view_name='Bld3Sec08FloatingAero_M'
MARKER/308
, PART = 1
, FLOATING
!                             adams_view_name='Bld3Sec09FloatingAero_M'
MARKER/309
, PART = 1
, FLOATING
!                             adams_view_name='Bld3Sec10FloatingAero_M'
MARKER/310
, PART = 1
, FLOATING
!                             adams_view_name='Bld3Sec11FloatingAero_M'
MARKER/311
, PART = 1
, FLOATING
!                             adams_view_name='Bld3Sec12FloatingAero_M'
MARKER/312
, PART = 1
, FLOATING
!                             adams_view_name='Bld3Sec13FloatingAero_M'
MARKER/313
, PART = 1
, FLOATING
!                             adams_view_name='Bld3Sec14FloatingAero_M'
MARKER/314
, PART = 1
, FLOATING
!                             adams_view_name='Bld3Sec15FloatingAero_M'
MARKER/315
, PART = 1
, FLOATING
!                             adams_view_name='Bld3Sec16FloatingAero_M'
MARKER/316
, PART = 1
, FLOATING
!                             adams_view_name='Bld3Sec17FloatingAero_M'
MARKER/317
, PART = 1
, FLOATING
!                             adams_view_name='Bld3Sec18FloatingAero_M'
MARKER/318
, PART = 1
, FLOATING
!                             adams_view_name='Bld3Sec19FloatingAero_M'
MARKER/319
, PART = 1
, FLOATING
!                             adams_view_name='Bld3Sec20FloatingAero_M'
MARKER/320
, PART = 1
, FLOATING
!                             adams_view_name='Bld3Sec21FloatingAero_M'
MARKER/321
, PART = 1
, FLOATING
!                             adams_view_name='Bld3Sec22FloatingAero_M'
MARKER/322
, PART = 1
, FLOATING
!                             adams_view_name='Bld3Sec23FloatingAero_M'
MARKER/323
, PART = 1
, FLOATING
!                             adams_view_name='Bld3Sec24FloatingAero_M'
MARKER/324
, PART = 1
, FLOATING
!                             adams_view_name='Bld3Sec25FloatingAero_M'
MARKER/325
, PART = 1
, FLOATING
!                             adams_view_name='Bld3Sec26FloatingAero_M'
MARKER/326
, PART = 1
, FLOATING
!                             adams_view_name='Bld3Sec27FloatingAero_M'
MARKER/327
, PART = 1
, FLOATING
!                             adams_view_name='Bld3Sec28FloatingAero_M'
MARKER/328
, PART = 1
, FLOATING
!                             adams_view_name='Bld3Sec29FloatingAero_M'
MARKER/329
, PART = 1
, FLOATING
!                             adams_view_name='Bld3Sec30FloatingAero_M'
MARKER/330
, PART = 1
, FLOATING
!                             adams_view_name='Bld3Sec31FloatingAero_M'
MARKER/331
, PART = 1
, FLOATING
!                             adams_view_name='Bld3Sec32FloatingAero_M'
MARKER/332
, PART = 1
, FLOATING
!                             adams_view_name='Bld3Sec33FloatingAero_M'
MARKER/333
, PART = 1
, FLOATING
!                             adams_view_name='Bld3Sec34FloatingAero_M'
MARKER/334
, PART = 1
, FLOATING
!                             adams_view_name='Bld3Sec35FloatingAero_M'
MARKER/335
, PART = 1
, FLOATING
!                             adams_view_name='Bld3Sec36FloatingAero_M'
MARKER/336
, PART = 1
, FLOATING
!                             adams_view_name='Bld3Sec37FloatingAero_M'
MARKER/337
, PART = 1
, FLOATING
!                             adams_view_name='Bld3Sec38FloatingAero_M'
MARKER/338
, PART = 1
, FLOATING
!                             adams_view_name='Bld3Sec39FloatingAero_M'
MARKER/339
, PART = 1
, FLOATING
!                             adams_view_name='Bld3Sec40FloatingAero_M'
MARKER/340
, PART = 1
, FLOATING
!                             adams_view_name='Bld3Sec41FloatingAero_M'
MARKER/341
, PART = 1
, FLOATING
!                             adams_view_name='Bld3Sec42FloatingAero_M'
MARKER/342
, PART = 1
, FLOATING
!                             adams_view_name='Bld3Sec43FloatingAero_M'
MARKER/343
, PART = 1
, FLOATING
!                             adams_view_name='Bld3Sec44FloatingAero_M'
MARKER/344
, PART = 1
, FLOATING
!                             adams_view_name='Bld3Sec45FloatingAero_M'
MARKER/345
, PART = 1
, FLOATING
!                             adams_view_name='Bld3Sec46FloatingAero_M'
MARKER/346
, PART = 1
, FLOATING
!                             adams_view_name='Bld3Sec47FloatingAero_M'
MARKER/347
, PART = 1
, FLOATING
!                             adams_view_name='Bld3Sec48FloatingAero_M'
MARKER/348
, PART = 1
, FLOATING
!                             adams_view_name='TipBrake3FloatingAero_M'
MARKER/503
, PART = 1
, FLOATING
!------------------------------- Ground GRAPHICS -------------------------------
!                             adams_view_name='Ground_G'
GRAPHICS/1
, CIRCLE
, CM = 1
, RADIUS =  6.163330E+01
, SEG = 20
!------------------------------ Support Platform -------------------------------
!                             adams_view_name='Platform_P'
PART/1000
, QG =  0.000000E+00,  0.000000E+00,  0.000000E+00
, ZG =  0.000000E+00,  0.000000E+00,  1.000000E+00
, XG =  1.000000E+00,  0.000000E+00,  0.000000E+00
, CM = 1005
, MASS =  9.999000E-04
, IP =  9.999000E-04,  9.999000E-04,  9.999000E-04
!                             adams_view_name='PlatformRef_M'
MARKER/1000
, PART = 1000
!                             adams_view_name='PlatformCM_M'
MARKER/1005
, PART = 1000
, QP =  0.000000E+00,  0.000000E+00,  0.000000E+00
, REULER = 0D, 0D, 0D
!                             adams_view_name='UndeflTwrTop_M'
MARKER/1030
, PART = 1000
, QP =  0.000000E+00,  0.000000E+00,  8.760000E+01
, REULER = 0D, 0D, 0D
!------------------------------------ Tower ------------------------------------
!------------------------------ Tower: Tower Base ------------------------------
!                             adams_view_name='TowerBaseCS_M'
MARKER/1100
, PART = 1000
, QP =  0.000000E+00,  0.000000E+00,  0.000000E+00
, REULER = 0D, 0D, 0D
!                             adams_view_name='TwrBaseToTwrSec01_M'
MARKER/1400
, PART = 1000
, QP =  0.000000E+00,  0.000000E+00,  0.000000E+00
, REULER = 90D, 90D, 90D
!                             adams_view_name='TowerBase_G'
GRAPHICS/1400
, CYLINDER
, CM = 1100
, LENGTH =  0.000000E+00
, SIDES = 20
, RADIUS =  3.000000E+00
, SEG = 20
!--------------------------- Tower: Tower Section 01 ---------------------------
!                             adams_view_name='UndeflTowerSec01_M'
MARKER/1901
, PART = 1000
, QP =  0.000000E+00,  0.000000E+00,  3.981818E+00
, REULER = 0D, 0D, 0D
!                             adams_view_name='TowerSec01_P'
PART/1101
, QG =  0.000000E+00,  0.000000E+00,  3.981818E+00
, ZG =  1.000000E+00,  0.000000E+00,  3.981818E+00
, XG =  0.000000E+00,  0.000000E+00,  4.981818E+00
, CM = 1501
, MASS =  4.322616E+04
, IP =  3.683722E+05,  4.126346E+05,  4.126346E+05
!                             adams_view_name='TowerSec01Elastic_M'
MARKER/1101
, PART = 1101
!                             adams_view_name='TowerSec01AeroHydro_M'
MARKER/1801
, PART = 1101
, QP = 0, 0, 0
, REULER = 90D, 90D, 90D
!                             adams_view_name='TowerSec01Graphics_M'
MARKER/1201
, PART = 1101
, QP = -3.981818E+00,  0.000000E+00,  0.000000E+00
, REULER = 90D, 90D, 90D
!                             adams_view_name='TowerSec01_G'
GRAPHICS/1201
, CYLINDER
, CM = 1201
, LENGTH =  7.963636E+00
, SIDES = 20
, RADIUS =  2.951591E+00
, SEG = 20
!                             adams_view_name='TwrSec01ToTwrSecBelow_M'
MARKER/1301
, PART = 1101
, QP = -3.981818E+00,  0.000000E+00,  0.000000E+00
, REULER = 0D, 0D, 0D
!                             adams_view_name='TwrSec01ToTwrSecAbove_M'
MARKER/1401
, PART = 1101
, QP =  3.981818E+00,  0.000000E+00,  0.000000E+00
, REULER = 0D, 0D, 0D
!                             adams_view_name='TowerSec01CM_M'
MARKER/1501
, PART = 1101
, QP =  0.000000E+00,  0.000000E+00,  0.000000E+00
, REULER = 0D, 0D, 0D
!--------------------------- Tower: Tower Section 02 ---------------------------
!                             adams_view_name='UndeflTowerSec02_M'
MARKER/1902
, PART = 1000
, QP =  0.000000E+00,  0.000000E+00,  1.194545E+01
, REULER = 0D, 0D, 0D
!                             adams_view_name='TowerSec02_P'
PART/1102
, QG =  0.000000E+00,  0.000000E+00,  1.194545E+01
, ZG =  1.000000E+00,  0.000000E+00,  1.194545E+01
, XG =  0.000000E+00,  0.000000E+00,  1.294545E+01
, CM = 1502
, MASS =  4.066526E+04
, IP =  3.241303E+05,  3.769793E+05,  3.769793E+05
!                             adams_view_name='TowerSec02Elastic_M'
MARKER/1102
, PART = 1102
!                             adams_view_name='TowerSec02AeroHydro_M'
MARKER/1802
, PART = 1102
, QP = 0, 0, 0
, REULER = 90D, 90D, 90D
!                             adams_view_name='TowerSec02Graphics_M'
MARKER/1202
, PART = 1102
, QP = -3.981818E+00,  0.000000E+00,  0.000000E+00
, REULER = 90D, 90D, 90D
!                             adams_view_name='TowerSec02_G'
GRAPHICS/1202
, CYLINDER
, CM = 1202
, LENGTH =  7.963636E+00
, SIDES = 20
, RADIUS =  2.854773E+00
, SEG = 20
!                             adams_view_name='TwrSec02ToTwrSecBelow_M'
MARKER/1302
, PART = 1102
, QP = -3.981818E+00,  0.000000E+00,  0.000000E+00
, REULER = 0D, 0D, 0D
!                             adams_view_name='TwrSec02ToTwrSecAbove_M'
MARKER/1402
, PART = 1102
, QP =  3.981818E+00,  0.000000E+00,  0.000000E+00
, REULER = 0D, 0D, 0D
!                             adams_view_name='TowerSec02CM_M'
MARKER/1502
, PART = 1102
, QP =  0.000000E+00,  0.000000E+00,  0.000000E+00
, REULER = 0D, 0D, 0D
!--------------------------- Tower: Tower Section 03 ---------------------------
!                             adams_view_name='UndeflTowerSec03_M'
MARKER/1903
, PART = 1000
, QP =  0.000000E+00,  0.000000E+00,  1.990909E+01
, REULER = 0D, 0D, 0D
!                             adams_view_name='TowerSec03_P'
PART/1103
, QG =  0.000000E+00,  0.000000E+00,  1.990909E+01
, ZG =  1.000000E+00,  0.000000E+00,  1.990909E+01
, XG =  0.000000E+00,  0.000000E+00,  2.090909E+01
, CM = 1503
, MASS =  3.818107E+04
, IP =  2.839520E+05,  3.437613E+05,  3.437613E+05
!                             adams_view_name='TowerSec03Elastic_M'
MARKER/1103
, PART = 1103
!                             adams_view_name='TowerSec03AeroHydro_M'
MARKER/1803
, PART = 1103
, QP = 0, 0, 0
, REULER = 90D, 90D, 90D
!                             adams_view_name='TowerSec03Graphics_M'
MARKER/1203
, PART = 1103
, QP = -3.981818E+00,  0.000000E+00,  0.000000E+00
, REULER = 90D, 90D, 90D
!                             adams_view_name='TowerSec03_G'
GRAPHICS/1203
, CYLINDER
, CM = 1203
, LENGTH =  7.963636E+00
, SIDES = 20
, RADIUS =  2.757955E+00
, SEG = 20
!                             adams_view_name='TwrSec03ToTwrSecBelow_M'
MARKER/1303
, PART = 1103
, QP = -3.981818E+00,  0.000000E+00,  0.000000E+00
, REULER = 0D, 0D, 0D
!                             adams_view_name='TwrSec03ToTwrSecAbove_M'
MARKER/1403
, PART = 1103
, QP =  3.981818E+00,  0.000000E+00,  0.000000E+00
, REULER = 0D, 0D, 0D
!                             adams_view_name='TowerSec03CM_M'
MARKER/1503
, PART = 1103
, QP =  0.000000E+00,  0.000000E+00,  0.000000E+00
, REULER = 0D, 0D, 0D
!--------------------------- Tower: Tower Section 04 ---------------------------
!                             adams_view_name='UndeflTowerSec04_M'
MARKER/1904
, PART = 1000
, QP =  0.000000E+00,  0.000000E+00,  2.787273E+01
, REULER = 0D, 0D, 0D
!                             adams_view_name='TowerSec04_P'
PART/1104
, QG =  0.000000E+00,  0.000000E+00,  2.787273E+01
, ZG =  1.000000E+00,  0.000000E+00,  2.787273E+01
, XG =  0.000000E+00,  0.000000E+00,  2.887273E+01
, CM = 1504
, MASS =  3.577362E+04
, IP =  2.475837E+05,  3.128539E+05,  3.128539E+05
!                             adams_view_name='TowerSec04Elastic_M'
MARKER/1104
, PART = 1104
!                             adams_view_name='TowerSec04AeroHydro_M'
MARKER/1804
, PART = 1104
, QP = 0, 0, 0
, REULER = 90D, 90D, 90D
!                             adams_view_name='TowerSec04Graphics_M'
MARKER/1204
, PART = 1104
, QP = -3.981818E+00,  0.000000E+00,  0.000000E+00
, REULER = 90D, 90D, 90D
!                             adams_view_name='TowerSec04_G'
GRAPHICS/1204
, CYLINDER
, CM = 1204
, LENGTH =  7.963636E+00
, SIDES = 20
, RADIUS =  2.661136E+00
, SEG = 20
!                             adams_view_name='TwrSec04ToTwrSecBelow_M'
MARKER/1304
, PART = 1104
, QP = -3.981818E+00,  0.000000E+00,  0.000000E+00
, REULER = 0D, 0D, 0D
!                             adams_view_name='TwrSec04ToTwrSecAbove_M'
MARKER/1404
, PART = 1104
, QP =  3.981818E+00,  0.000000E+00,  0.000000E+00
, REULER = 0D, 0D, 0D
!                             adams_view_name='TowerSec04CM_M'
MARKER/1504
, PART = 1104
, QP =  0.000000E+00,  0.000000E+00,  0.000000E+00
, REULER = 0D, 0D, 0D
!--------------------------- Tower: Tower Section 05 ---------------------------
!                             adams_view_name='UndeflTowerSec05_M'
MARKER/1905
, PART = 1000
, QP =  0.000000E+00,  0.000000E+00,  3.583636E+01
, REULER = 0D, 0D, 0D
!                             adams_view_name='TowerSec05_P'
PART/1105
, QG =  0.000000E+00,  0.000000E+00,  3.583636E+01
, ZG =  1.000000E+00,  0.000000E+00,  3.583636E+01
, XG =  0.000000E+00,  0.000000E+00,  3.683636E+01
, CM = 1505
, MASS =  3.344286E+04
, IP =  2.147800E+05,  2.841342E+05,  2.841342E+05
!                             adams_view_name='TowerSec05Elastic_M'
MARKER/1105
, PART = 1105
!                             adams_view_name='TowerSec05AeroHydro_M'
MARKER/1805
, PART = 1105
, QP = 0, 0, 0
, REULER = 90D, 90D, 90D
!                             adams_view_name='TowerSec05Graphics_M'
MARKER/1205
, PART = 1105
, QP = -3.981818E+00,  0.000000E+00,  0.000000E+00
, REULER = 90D, 90D, 90D
!                             adams_view_name='TowerSec05_G'
GRAPHICS/1205
, CYLINDER
, CM = 1205
, LENGTH =  7.963636E+00
, SIDES = 20
, RADIUS =  2.564318E+00
, SEG = 20
!                             adams_view_name='TwrSec05ToTwrSecBelow_M'
MARKER/1305
, PART = 1105
, QP = -3.981818E+00,  0.000000E+00,  0.000000E+00
, REULER = 0D, 0D, 0D
!                             adams_view_name='TwrSec05ToTwrSecAbove_M'
MARKER/1405
, PART = 1105
, QP =  3.981818E+00,  0.000000E+00,  0.000000E+00
, REULER = 0D, 0D, 0D
!                             adams_view_name='TowerSec05CM_M'
MARKER/1505
, PART = 1105
, QP =  0.000000E+00,  0.000000E+00,  0.000000E+00
, REULER = 0D, 0D, 0D
!--------------------------- Tower: Tower Section 06 ---------------------------
!                             adams_view_name='UndeflTowerSec06_M'
MARKER/1906
, PART = 1000
, QP =  0.000000E+00,  0.000000E+00,  4.380000E+01
, REULER = 0D, 0D, 0D
!                             adams_view_name='TowerSec06_P'
PART/1106
, QG =  0.000000E+00,  0.000000E+00,  4.380000E+01
, ZG =  1.000000E+00,  0.000000E+00,  4.380000E+01
, XG =  0.000000E+00,  0.000000E+00,  4.480000E+01
, CM = 1506
, MASS =  3.118887E+04
, IP =  1.853058E+05,  2.574848E+05,  2.574848E+05
!                             adams_view_name='TowerSec06Elastic_M'
MARKER/1106
, PART = 1106
!                             adams_view_name='TowerSec06AeroHydro_M'
MARKER/1806
, PART = 1106
, QP = 0, 0, 0
, REULER = 90D, 90D, 90D
!                             adams_view_name='TowerSec06Graphics_M'
MARKER/1206
, PART = 1106
, QP = -3.981818E+00,  0.000000E+00,  0.000000E+00
, REULER = 90D, 90D, 90D
!                             adams_view_name='TowerSec06_G'
GRAPHICS/1206
, CYLINDER
, CM = 1206
, LENGTH =  7.963636E+00
, SIDES = 20
, RADIUS =  2.467500E+00
, SEG = 20
!                             adams_view_name='TwrSec06ToTwrSecBelow_M'
MARKER/1306
, PART = 1106
, QP = -3.981818E+00,  0.000000E+00,  0.000000E+00
, REULER = 0D, 0D, 0D
!                             adams_view_name='TwrSec06ToTwrSecAbove_M'
MARKER/1406
, PART = 1106
, QP =  3.981818E+00,  0.000000E+00,  0.000000E+00
, REULER = 0D, 0D, 0D
!                             adams_view_name='TowerSec06CM_M'
MARKER/1506
, PART = 1106
, QP =  0.000000E+00,  0.000000E+00,  0.000000E+00
, REULER = 0D, 0D, 0D
!--------------------------- Tower: Tower Section 07 ---------------------------
!                             adams_view_name='UndeflTowerSec07_M'
MARKER/1907
, PART = 1000
, QP =  0.000000E+00,  0.000000E+00,  5.176364E+01
, REULER = 0D, 0D, 0D