
This file was generated by AeroDyn (v13.00.02a-bjj, 20-Feb-2013) on 09-Apr-2017 at 00:42:42.

Inputs read in from the AeroDyn input file:
Created 25-Apr-2016 12:42:24.

SI	Units for input and output         
BEDDOES	Dynamic stall model                 [Beddoes]
USE_CM	Aerodynamic pitching moment model   [Pitching Moments calculated]
EQUIL	Inflow model                        [Equilibrium]
NONE	Induction factor model              [NO induction factors calculated]
[Not Used]	Convergence tolerance for induction factor
PRAND	Tip-loss model                      [Prandtl model]
PRAND	Hub-loss model                      [Prandtl model]
".\wind.wnd"	  Wind file name
90	Wind reference (hub) height, m
0	Tower shadow centerline velocity deficit
9999.9	Tower shadow half width, m
9999.9	Tower shadow reference point, m
1.225	Air density, kg/m^3
1.46400E-05	Kinematic air viscosity, m^2/sec
2.47900E-02	Time interval for aerodynamic calculations, sec
8	Number of airfoil files used. Files listed below:
".\FASTTOOL_airfoil_Cylinder1.dat"
".\FASTTOOL_airfoil_Cylinder2.dat"
".\FASTTOOL_airfoil_DU40_A17.dat"
".\FASTTOOL_airfoil_DU35_A17.dat"
".\FASTTOOL_airfoil_DU30_A17.dat"
".\FASTTOOL_airfoil_DU25_A17.dat"
".\FASTTOOL_airfoil_DU21_A17.dat"
".\FASTTOOL_airfoil_NACA64_A17.dat"
48	Number of blade elements per blade

     Element     RELM       Twist       DR        Chord      NFoil     Print?    Tip-loss   Hub-loss 
       (-)        (m)       (deg)       (m)        (m)        (-)     (Yes/No)   constant   constant 
   ---------- ---------- ---------- ---------- ---------- ---------- ---------- ---------- ----------
            1    2.96220   13.20200    0.19100    3.56400          1         No   29.70989    0.04997
            2    3.53550   13.20200    0.95550    3.56400          1         No   24.64905    0.34995
            3    4.49100   13.20200    0.95560    3.67300          1         No   19.08560    0.84991
            4    5.44660   13.20200    0.95550    3.89100          1         No   15.47388    1.34993
            5    6.40210   13.20200    0.95560    4.00100          1         No   12.94057    1.84990
            6    7.35770   13.20200    0.95550    4.11000          2         No   11.06506    2.34991
            7    8.31320   13.20200    0.95560    4.22300          2         No    9.62086    2.84988
            8    9.26880   13.20200    0.95550    4.35400          2         No    8.47432    3.34990
            9   10.22490   13.20200    0.95670    4.47500          3         No    7.54165    3.85018
           10   11.18040   13.20200    0.95440    4.55300          3         No    6.76893    4.35014
           11   12.13540   13.04700    0.95550    4.58900          3         No    6.11820    4.84984
           12   13.09090   12.61000    0.95560    4.61900          3         No    5.56215    5.34981
           13   14.04650   12.05100    0.95550    4.64000          4         No    5.08171    5.84983
           14   15.00260   11.53000    0.95680    4.65100          4         No    4.66226    6.35011
           15   15.95820   11.53000    0.95430    4.65100          4         No    4.29326    6.85012
           16   16.91310   10.84000    0.95560    4.60800          4         No    3.96617    7.34978
           17   17.86870   10.53900    0.95550    4.55300          4         No    3.67385    7.84979
           18   19.30260    9.96400    1.91230    4.44300          4         No    3.28951    8.60008
           19   21.21400    9.42800    1.91050    4.34800          5         No    2.85797    9.60022
           20   23.12470    9.42800    1.91110    4.34800          5         No    2.49789   10.59999
           21   25.03590    8.33600    1.91110    4.13800          5         No    2.19270   11.60003
           22   26.94690    7.76300    1.91100    4.02200          6         No    1.93082   12.59996
           23   28.85820    7.76300    1.91170    4.02200          6         No    1.70359   13.60005
           24   30.76940    6.59500    1.91050    3.78100          6         No    1.50461   14.60008
           25   32.68010    6.59500    1.91110    3.78100          6         No    1.32894   15.59985
           26   34.59130    5.48500    1.91110    3.55000          7         No    1.17264   16.59989
           27   36.50240    4.93400    1.91110    3.43600          7         No    1.03271   17.59987
           28   38.41380    4.38300    1.91170    3.32100          7         No    0.90669   18.60001
           29   40.32480    3.85500    1.91050    3.20600          7         No    0.79263   19.59994
           30   42.23570    3.34600    1.91110    3.09200          8         No    0.68891   20.59982
           31   44.14670    3.34600    1.91110    3.09200          8         No    0.59415   21.59975
           32   46.05780    2.52300    1.91100    2.86200          8         No    0.50726   22.59973
           33   47.96950    2.15900    1.91230    2.74700          8         No    0.42727   23.60003
           34   49.88050    2.15900    1.90990    2.74700          8         No    0.35343   24.59996
           35   51.79100    1.79000    1.91110    2.63300          8         No    0.28506   25.59963
           36   53.70220    1.04600    1.91110    2.40800          8         No    0.22153   26.59966
           37   55.13550    0.86200    0.95550    2.35000          8         No    0.17678   27.34964
           38   56.09100    0.68000    0.95560    2.28500          8         No    0.14821   27.84960
           39   57.04660    0.49100    0.95550    2.21900          8         No    0.12060   28.34962
           40   57.76320    0.40300    0.47780    2.18000          8         No    0.10050   28.72458
           41   58.24160    0.32300    0.47900    2.13400          8         No    0.08735   28.97490
           42   58.71940    0.25700    0.47660    2.07900          8         No    0.07444   29.22491
           43   59.19660    0.19900    0.47770    2.00400          8         No    0.06174   29.47460
           44   59.67430    0.14500    0.47780    1.90600          8         No    0.04924   29.72456
           45   60.15210    0.09600    0.47780    1.78900          8         No    0.03694   29.97457
           46   60.62990    0.05300    0.47770    1.65600          8         No    0.02482   30.22458
           47   61.10760    0.01700    0.47780    1.51100          8         No    0.01290   30.47454
           48   61.48990    0.00000    0.28680    1.41900          8         No    0.00350   30.67457


 Rotor radius     =  61.575 m
 Hub radius       =   2.864 m
 Number of blades =   3

  BEDDOES DYNAMIC STALL PARAMETERS:

   CN SLOPE           0.0000     0.0000     7.4888     7.1838     7.3326     6.4462     6.2047     6.0031
   STALL CN (UPPER)   0.0000     0.0000     1.3519     1.6717     1.4490     1.4336     1.4144     1.4073
   STALL CN (LOWER)   0.0000     0.0000    -0.3226    -0.3075    -0.6138    -0.6873    -0.5324    -0.7945
   ZERO LIFT AOA      0.0000     0.0000    -1.3430    -1.8330    -2.3220    -4.2422    -5.0609    -4.4320
   MIN DRAG AOA       0.0000     0.0000     0.0000     0.0000     0.0000     0.0000    -1.5000    -1.0000
   MIN DRAG COEFF     0.5000     0.3500     0.0113     0.0094     0.0087     0.0065     0.0057     0.0052


     VORTEX TRANSIT TIME FROM LE TO TE    11.0000000000000     
     PRESSURE TIME CONSTANT               1.70000000000000     
     VORTEX TIME CONSTANT                 6.00000000000000     
     F-PARAMETER TIME CONSTANT            3.00000000000000     
